power_system/WECC240_HS_2018_Basecase_modified.m
% % Modified:
% 1. add generator based on csv file (at bus [2600, 2619], P=mean(csv), others similar to nearby gen)
% 2. remove generator that csv does not have (bus name [2438, 3133, 3835, 3933, 7031], whose P & Q == 0)

% Case saved by PowerWorld Simulator, version 21, build date April 14, 2020
% Case Information Header = 2 lines
% WECC 240 SYSTEM, V0.2,  MODIFIED BY NREL, INTERNAL USE ONLY
% CONTACT: HAOYU.YUAN@NREL.GOV
function mpc = WECC240_HS_2018_Basecase_modified
mpc.version = '2';
mpc.baseMVA =  100.00;

%% bus data 
mpc.bus = [
1001	1	0.00	0.00	0.00	0.00	2	1.0354562	10.768663	500.00	2	1.100	0.900
1002	1	273.77	-45.22	0.00	0.00	2	1.0139999	13.031554	345.00	2	1.100	0.900
1003	1	2330.22	396.99	0.00	0.00	2	0.9685013	3.607671	230.00	2	1.100	0.900
1004	1	1584.97	8.43	0.00	0.00	2	1.0300000	16.975303	345.00	27	1.100	0.900
1032	2	0.00	0.00	0.00	0.00	2	1.0130570	13.564372	20.00	2	1.100	0.900
1034	2	0.00	0.00	0.00	0.00	2	1.0302341	17.856580	20.00	27	1.100	0.900
1101	1	2267.20	-68.63	0.00	0.00	2	1.0100000	13.059341	500.00	33	1.100	0.900
1102	1	220.13	28.70	0.00	0.00	2	1.0212196	12.516428	345.00	2	1.100	0.900
1131	2	0.00	0.00	0.00	0.00	2	1.0089204	14.803214	20.00	33	1.100	0.900
1201	1	188.44	-2.27	0.00	0.00	2	1.0928267	0.798886	500.00	2	1.100	0.900
1202	1	992.18	325.36	0.00	0.00	2	1.0801765	3.283098	500.00	2	1.100	0.900
1232	3	0.00	0.00	0.00	0.00	2	1.0800000	3.963700	20.00	33	1.100	0.900
1301	1	2199.59	286.93	0.00	0.00	2	1.0450000	-3.443003	500.00	39	1.100	0.900
1302	1	14.30	1.88	0.00	0.00	1	1.0336530	2.499202	500.00	21	1.100	0.900
1303	1	5192.91	677.40	0.00	0.00	1	1.0050000	4.209630	345.00	21	1.100	0.900
1331	2	0.00	0.00	0.00	0.00	2	1.0451902	-2.793653	20.00	39	1.100	0.900
1333	2	0.00	0.00	0.00	0.00	1	1.0064571	5.759118	20.00	21	1.100	0.900
1401	1	6362.29	1484.18	0.00	0.00	2	1.0349999	-9.486087	500.00	33	1.100	0.900
1402	1	4312.15	-482.24	0.00	0.00	2	1.0602562	-12.783776	500.00	2	1.100	0.900
1403	1	0.00	0.00	0.00	0.00	2	1.0354581	-9.202603	230.00	39	1.100	0.900
1431	2	0.00	0.00	0.00	0.00	2	1.0448992	-8.432496	20.00	2	1.100	0.900
2000	1	2233.25	291.32	0.00	0.00	3	1.0000000	2.072575	230.00	8	1.100	0.900
2030	2	0.00	0.00	0.00	0.00	3	1.0015088	2.884672	20.00	8	1.100	0.900
2100	1	964.09	188.02	0.00	0.00	2	1.0350000	-7.729199	230.00	18	1.100	0.900
2130	2	0.00	0.00	0.00	0.00	2	1.0363097	-7.276774	20.00	18	1.100	0.900
2201	1	0.00	0.00	0.00	0.00	3	0.9904308	-10.297155	500.00	32	1.100	0.900
2202	1	1730.63	300.65	0.00	0.00	3	0.9844700	-10.888028	230.00	32	1.100	0.900
2203	1	1872.72	305.01	0.00	0.00	3	1.0050000	-3.486608	230.00	32	1.100	0.900
2233	2	0.00	0.00	0.00	0.00	3	1.0067066	-2.465803	20.00	25	1.100	0.900
2301	1	0.00	0.00	0.00	0.00	3	1.0363424	-4.754189	500.00	32	1.100	0.900
2302	1	0.00	0.00	0.00	0.00	3	1.0350000	-3.815437	230.00	32	1.100	0.900
2332	2	0.00	0.00	0.00	0.00	3	1.0350378	-3.651972	20.00	32	1.100	0.900
2400	1	951.96	86.54	0.00	0.00	3	1.0273366	-13.626124	500.00	30	1.100	0.900
2401	1	971.16	115.80	0.00	0.00	3	1.0498068	-2.759596	500.00	30	1.100	0.900
2402	1	1212.01	92.00	0.00	0.00	3	1.0306690	-6.624347	500.00	30	1.100	0.900
2403	1	1187.26	43.58	0.00	0.00	3	1.0219339	-14.096575	500.00	30	1.100	0.900
2404	1	0.00	0.00	0.00	0.00	3	1.0371526	2.074727	500.00	30	1.100	0.900
2405	1	942.62	26.18	0.00	0.00	3	0.9871417	-3.173670	230.00	20	1.100	0.900
2406	1	846.20	-46.76	0.00	0.00	3	0.9948726	-0.777324	230.00	30	1.100	0.900
2407	1	1267.21	-43.59	0.00	0.00	3	1.0304025	7.078887	230.00	30	1.100	0.900
2408	1	3000.00	-83.15	0.00	0.00	3	1.0499999	15.660575	230.00	30	1.100	0.900
2409	1	1814.23	-98.20	0.00	0.00	3	1.0200000	-6.555967	230.00	30	1.100	0.900
2410	1	1811.82	66.86	0.00	0.00	3	0.9855211	-6.524379	230.00	30	1.100	0.900
2411	1	1231.62	86.01	0.00	0.00	3	1.0201021	0.638646	230.00	30	1.100	0.900
2431	2	0.00	0.00	0.00	0.00	3	1.0499999	-2.725027	20.00	30	1.100	0.900
2434	2	0.00	0.00	0.00	0.00	3	1.0200000	0.669834	20.00	30	1.100	0.900
2438	2	0.00	0.00	0.00	0.00	3	1.0561446	18.050798	20.00	30	1.100	0.900
2439	2	0.00	0.00	0.00	0.00	3	1.0198886	-6.515294	20.00	30	1.100	0.900
2501	1	0.00	0.00	0.00	0.00	3	1.0234739	-8.519491	500.00	30	1.100	0.900
2502	1	2000.06	-103.97	0.00	0.00	3	1.0182841	-8.998719	230.00	30	1.100	0.900
2503	1	2113.55	231.28	0.00	0.00	3	1.0089999	-10.393849	230.00	30	1.100	0.900
2533	2	0.00	0.00	0.00	0.00	3	1.0109267	-10.138884	20.00	30	1.100	0.900
2600	1	-1915.31	0.00	0.00	0.00	3	1.0464994	0.615113	500.00	20	1.100	0.900
2601	1	0.00	0.00	0.00	0.00	3	1.0312017	-0.882244	500.00	20	1.100	0.900
2602	1	155.16	20.25	0.00	0.00	3	0.9893537	-0.816476	500.00	20	1.100	0.900
2603	1	0.00	0.00	0.00	0.00	3	1.0486863	-0.044079	500.00	20	1.100	0.900
2604	1	1975.49	0.00	0.00	0.00	3	1.0300000	10.414232	345.00	20	1.100	0.900
2605	1	0.00	0.00	0.00	0.00	3	0.9824207	3.233921	287.00	20	1.100	0.900
2606	1	0.00	0.00	0.00	0.00	3	0.9824207	3.233921	287.00	20	1.100	0.900
2607	1	0.00	0.00	0.00	0.00	3	1.0277138	0.989185	287.00	20	1.100	0.900
2608	1	156.05	20.36	0.00	0.00	3	0.9976376	-2.552571	230.00	20	1.100	0.900
2609	1	214.12	42.82	0.00	0.00	3	0.9521214	1.764152	230.00	20	1.100	0.900
2610	1	157.76	20.59	0.00	0.00	3	1.0040000	27.783488	230.00	20	1.100	0.900
2611	1	156.05	20.36	0.00	0.00	3	0.9950740	-2.898260	230.00	20	1.100	0.900
2612	1	189.09	39.07	0.00	0.00	3	0.9866075	-2.727364	230.00	20	1.100	0.900
2613	1	510.04	103.60	0.00	0.00	3	0.9450929	8.352296	230.00	20	1.100	0.900
2614	1	218.31	44.29	0.00	0.00	3	0.9545360	5.537277	230.00	20	1.100	0.900
2615	1	1273.94	208.33	0.00	0.00	3	0.9636723	-0.869065	230.00	20	1.100	0.900
2616	1	186.11	38.18	0.00	0.00	3	0.9474899	7.769426	230.00	20	1.100	0.900
2617	1	192.29	39.73	0.00	0.00	3	0.9485025	4.466923	230.00	20	1.100	0.900
2618	1	1391.03	-9.71	0.00	0.00	3	0.9821176	-4.619662	230.00	20	1.100	0.900
2619	1	-2721.55	0.00	0.00	0.00	3	0.9873737	-1.994366	230.00	20	1.100	0.900
2620	1	322.20	27.63	0.00	0.00	3	0.9756818	-2.746382	230.00	20	1.100	0.900
2621	1	371.22	-98.91	0.00	0.00	3	0.9707575	3.636006	138.00	20	1.100	0.900
2630	2	0.00	0.00	0.00	0.00	3	1.0095705	28.899043	20.00	20	1.100	0.900
2631	2	0.00	0.00	0.00	0.00	2	0.9961181	-2.874146	20.00	33	1.100	0.900
2634	2	0.00	0.00	0.00	0.00	3	1.0297484	10.851260	20.00	20	1.100	0.900
2637	2	0.00	0.00	0.00	0.00	3	0.9867838	-2.712522	20.00	20	1.100	0.900
2638	2	0.00	0.00	0.00	0.00	3	0.9981381	-2.484684	20.00	20	1.100	0.900
2901	1	0.00	0.00	0.00	0.00	3	1.1084188	-0.955282	500.00	30	1.100	0.900
2902	1	0.00	0.00	0.00	0.00	3	1.1182652	-1.582435	500.00	30	1.100	0.900
3101	1	388.54	60.14	0.00	0.00	3	0.9734965	3.556419	230.00	25	1.100	0.900
3102	1	180.56	28.23	0.00	0.00	3	0.9796376	5.020500	230.00	25	1.100	0.900
3103	1	471.36	67.15	0.00	0.00	3	0.9876447	7.674077	230.00	25	1.100	0.900
3104	1	351.29	45.48	0.00	0.00	3	0.9784418	2.942091	115.00	25	1.100	0.900
3105	1	266.86	54.74	0.00	0.00	3	1.0000000	6.844989	115.00	25	1.100	0.900
3133	2	0.00	0.00	0.00	0.00	3	0.9877702	7.692283	20.00	32	1.100	0.900
3135	2	0.00	0.00	0.00	0.00	3	1.0005239	6.989230	20.00	25	1.100	0.900
3201	1	516.90	109.36	0.00	0.00	3	0.9968708	5.560956	230.00	25	1.100	0.900
3202	1	655.39	93.33	0.00	0.00	3	0.9947088	7.011960	230.00	25	1.100	0.900
3203	1	601.89	145.16	0.00	0.00	3	0.9958986	6.490225	230.00	25	1.100	0.900
3204	1	738.41	105.24	0.00	0.00	3	1.0100000	14.271230	230.00	25	1.100	0.900
3205	1	609.86	86.87	0.00	0.00	3	0.9935759	10.993470	230.00	25	1.100	0.900
3234	2	0.00	0.00	0.00	0.00	3	1.0139016	16.030268	20.00	25	1.100	0.900
3301	1	0.00	0.00	0.00	0.00	3	1.0151504	2.623979	500.00	25	1.100	0.900
3302	1	392.01	97.39	0.00	0.00	3	0.9784775	2.142447	230.00	25	1.100	0.900
3303	1	697.42	168.07	0.00	0.00	3	1.0000000	3.627773	230.00	25	1.100	0.900
3304	1	601.90	138.34	0.00	0.00	3	0.9865915	2.162038	230.00	25	1.100	0.900
3305	1	482.84	68.70	0.00	0.00	3	0.9897543	6.410240	230.00	25	1.100	0.900
3333	2	0.00	0.00	0.00	0.00	3	1.0015683	4.006461	20.00	25	1.100	0.900
3401	1	648.34	158.00	0.00	0.00	3	0.9374892	-5.839845	230.00	25	1.100	0.900
3402	1	0.00	0.00	0.00	0.00	3	0.9395570	-5.853508	230.00	25	1.100	0.900
3403	1	575.38	82.06	0.00	0.00	3	1.0000000	9.030083	230.00	25	1.100	0.900
3404	1	496.08	70.23	0.00	0.00	3	0.9754562	0.823202	230.00	25	1.100	0.900
3405	1	524.15	74.40	0.00	0.00	3	0.9334336	-8.567084	230.00	25	1.100	0.900
3432	2	0.00	0.00	0.00	0.00	3	0.9395570	-5.853508	20.00	25	1.100	0.900
3433	2	0.00	0.00	0.00	0.00	3	1.0008529	9.418180	20.00	25	1.100	0.900
3501	1	696.98	99.26	0.00	0.00	3	1.0000000	23.350972	230.00	25	1.100	0.900
3531	2	0.00	0.00	0.00	0.00	3	1.0010489	23.901082	20.00	25	1.100	0.900
3601	1	115.20	16.31	0.00	0.00	3	1.0150000	-0.353632	115.00	25	1.100	0.900
3631	2	0.00	0.00	0.00	0.00	3	1.0147908	-0.299116	20.00	25	1.100	0.900
3701	1	239.16	11.95	0.00	0.00	1	1.0000000	-10.260600	115.00	9	1.100	0.900
3731	2	0.00	0.00	0.00	0.00	3	0.9999288	-10.220231	20.00	25	1.100	0.900
3801	1	203.28	50.40	0.00	0.00	3	1.0490000	12.303157	500.00	25	1.100	0.900
3802	1	0.00	0.00	0.00	0.00	3	1.0310894	5.803938	500.00	25	1.100	0.900
3803	1	0.00	0.00	0.00	0.00	3	1.0442228	5.380006	500.00	25	1.100	0.900
3804	1	250.07	61.86	0.00	0.00	3	0.9851259	4.201327	230.00	25	1.100	0.900
3805	1	538.06	175.74	0.00	0.00	3	1.0350000	10.633859	230.00	25	1.100	0.900
3806	1	316.91	45.27	0.00	0.00	3	1.0190001	16.996260	230.00	25	1.100	0.900
3831	2	0.00	0.00	0.00	0.00	3	1.0490291	12.851946	20.00	25	1.100	0.900
3835	2	0.00	0.00	0.00	0.00	3	1.0359715	11.046672	20.00	25	1.100	0.900
3836	2	0.00	0.00	0.00	0.00	3	1.0193903	17.409116	20.00	25	1.100	0.900
3891	1	0.00	0.00	0.00	0.00	3	1.0522757	4.791299	500.00	25	1.100	0.900
3892	1	0.00	0.00	0.00	0.00	3	1.0364797	9.143017	500.00	25	1.100	0.900
3893	1	0.00	0.00	0.00	0.00	3	1.0341259	-1.689415	500.00	25	1.100	0.900
3894	1	0.00	0.00	0.00	0.00	3	1.0362682	9.205779	500.00	30	1.100	0.900
3895	1	0.00	0.00	0.00	0.00	3	1.0343541	-1.713812	500.00	30	1.100	0.900
3896	1	0.00	0.00	0.00	0.00	3	1.0367317	9.393335	500.00	30	1.100	0.900
3897	1	0.00	0.00	0.00	0.00	3	1.0360541	-1.526448	500.00	25	1.100	0.900
3901	1	0.00	0.00	0.00	0.00	3	1.0245357	2.025949	500.00	25	1.100	0.900
3902	1	170.61	42.65	0.00	0.00	3	1.0000000	2.981758	500.00	25	1.100	0.900
3903	1	236.34	33.55	0.00	0.00	3	1.0454112	0.880723	500.00	25	1.100	0.900
3904	1	0.00	0.00	0.00	0.00	3	1.0462792	0.670039	500.00	25	1.100	0.900
3905	1	0.00	0.00	0.00	1000.00	3	1.0830473	-3.077281	500.00	25	1.100	0.900
3906	1	0.00	0.00	0.00	0.00	3	1.0809491	-4.191196	500.00	25	1.100	0.900
3907	1	533.26	72.90	0.00	0.00	3	0.9472633	-6.411936	230.00	25	1.100	0.900
3908	1	231.54	28.57	0.00	0.00	3	0.9600410	-10.076389	230.00	25	1.100	0.900
3909	1	197.49	45.96	0.00	0.00	3	0.9867143	-12.532762	230.00	25	1.100	0.900
3910	1	283.05	40.31	0.00	0.00	3	0.9526222	-9.387041	230.00	25	1.100	0.900
3911	1	253.22	51.17	0.00	0.00	3	1.0401678	-3.035385	230.00	25	1.100	0.900
3912	1	194.43	-0.71	0.00	0.00	3	1.0127096	-7.929545	230.00	25	1.100	0.900
3913	1	372.96	49.16	0.00	0.00	3	0.9802629	-5.108170	230.00	25	1.100	0.900
3914	1	256.79	59.25	0.00	0.00	3	0.9796422	15.045915	230.00	25	1.100	0.900
3915	1	286.03	60.03	0.00	0.00	3	0.9812806	11.083927	230.00	25	1.100	0.900
3916	1	173.18	0.00	0.00	0.00	3	1.0104796	-6.789287	230.00	25	1.100	0.900
3917	1	265.35	49.01	0.00	0.00	3	1.0001594	-0.099788	230.00	25	1.100	0.900
3918	1	358.76	84.79	0.00	0.00	3	0.9888005	1.516216	230.00	25	1.100	0.900
3919	1	212.71	27.78	0.00	0.00	3	1.0034208	-12.195222	230.00	25	1.100	0.900
3920	1	196.79	27.01	0.00	0.00	3	0.9866814	-9.577589	230.00	25	1.100	0.900
3921	1	157.26	36.29	0.00	0.00	3	1.0700001	1.180727	230.00	25	1.100	0.900
3922	1	287.23	36.17	0.00	0.00	3	1.0324808	-8.496538	230.00	25	1.100	0.900
3923	1	437.94	73.55	0.00	0.00	3	1.0159725	8.486060	230.00	25	1.100	0.900
3924	1	371.90	52.75	0.00	0.00	3	1.0015800	3.742495	230.00	25	1.100	0.900
3925	1	0.00	0.00	0.00	0.00	3	1.0273285	-1.722603	115.00	25	1.100	0.900
3926	1	302.59	18.86	0.00	0.00	3	0.9915561	-11.204551	115.00	25	1.100	0.900
3931	2	0.00	0.00	0.00	0.00	3	1.0703754	1.472318	20.00	25	1.100	0.900
3932	2	0.00	0.00	0.00	0.00	3	0.9989772	3.120842	20.00	25	1.100	0.900
3933	2	0.00	0.00	0.00	0.00	3	1.0200000	9.509248	20.00	25	1.100	0.900
4001	1	0.00	0.00	0.00	800.00	1	1.0800000	-5.616961	500.00	7	1.100	0.900
4002	1	134.76	17.57	0.00	0.00	1	1.1081269	-3.309344	500.00	7	1.100	0.900
4003	1	0.00	0.00	0.00	0.00	1	1.1146168	6.487222	500.00	24	1.100	0.900
4004	1	216.46	28.25	0.00	0.00	1	1.0994952	-6.936824	500.00	7	1.100	0.900
4005	1	387.73	127.13	0.00	0.00	1	1.0800000	-8.566137	500.00	7	1.100	0.900
4006	1	0.00	0.00	0.00	0.00	1	1.0751844	-12.596378	500.00	7	1.100	0.900
4007	1	0.00	0.00	0.00	0.00	1	1.0751829	-12.801636	500.00	7	1.100	0.900
4008	1	231.22	30.16	0.00	0.00	1	1.0767279	-6.327395	345.00	7	1.100	0.900
4009	1	3212.06	627.36	0.00	0.00	1	1.0800000	-15.780510	230.00	7	1.100	0.900
4010	1	2880.32	0.00	0.00	0.00	1	1.0786018	-15.814077	230.00	7	1.100	0.900
4031	2	0.00	0.00	0.00	0.00	1	1.0741105	-5.521369	20.00	7	1.100	0.900
4035	2	0.00	0.00	0.00	0.00	1	1.0789361	-8.252980	20.00	7	1.100	0.900
4039	2	0.00	0.00	0.00	0.00	1	1.0853289	-15.314770	20.00	7	1.100	0.900
4090	1	0.00	0.00	0.00	0.00	1	1.1055719	-3.645642	500.00	7	1.100	0.900
4091	1	0.00	0.00	0.00	0.00	1	1.1066564	-5.434236	500.00	7	1.100	0.900
4092	1	0.00	0.00	0.00	0.00	1	1.0928205	-5.995288	500.00	7	1.100	0.900
4093	1	0.00	0.00	0.00	0.00	1	1.0909871	-5.874276	500.00	7	1.100	0.900
4094	1	0.00	0.00	0.00	0.00	1	1.1051449	-6.790225	500.00	7	1.100	0.900
4095	1	0.00	0.00	0.00	0.00	1	1.0911397	-5.941360	500.00	7	1.100	0.900
4096	1	0.00	0.00	0.00	0.00	1	1.0890846	-5.813654	500.00	7	1.100	0.900
4097	1	0.00	0.00	0.00	0.00	1	1.1049522	-6.778957	500.00	7	1.100	0.900
4101	1	769.37	100.35	0.00	0.00	1	1.1280000	8.724910	500.00	7	1.100	0.900
4102	1	497.16	71.02	0.00	0.00	1	1.0960000	0.112175	500.00	7	1.100	0.900
4103	1	754.29	97.89	0.00	0.00	1	1.0742332	-6.855227	500.00	7	1.100	0.900
4104	1	2052.64	267.76	0.00	0.00	1	1.0525898	-15.553234	230.00	7	1.100	0.900
4131	2	0.00	0.00	0.00	0.00	1	1.1308816	10.492410	20.00	7	1.100	0.900
4132	2	0.00	0.00	0.00	0.00	1	1.0970057	0.919698	20.00	7	1.100	0.900
4201	1	4992.64	399.41	0.00	0.00	1	1.1200000	2.806380	500.00	7	1.100	0.900
4202	1	3750.58	489.27	0.00	0.00	1	1.0599999	-10.329349	500.00	7	1.100	0.900
4203	1	3422.27	446.44	0.00	0.00	1	1.0390256	-12.527058	500.00	7	1.100	0.900
4204	1	828.25	108.04	0.00	0.00	1	1.0636424	-7.466941	500.00	24	1.100	0.900
4231	2	0.00	0.00	0.00	0.00	1	1.1256683	3.685113	20.00	31	1.100	0.900
4232	2	0.00	0.00	0.00	0.00	1	1.0577219	-10.257647	20.00	9	1.100	0.900
5001	1	7618.13	1731.39	0.00	0.00	1	1.0499999	7.944476	500.00	6	1.100	0.900
5002	1	9681.45	1262.72	0.00	0.00	1	1.0550000	19.694195	500.00	1	1.100	0.900
5003	1	668.45	87.20	0.00	0.00	1	1.0429386	14.355196	230.00	1	1.100	0.900
5004	1	0.00	0.00	0.00	0.00	1	1.0457431	-0.716852	230.00	6	1.100	0.900
5031	2	0.00	0.00	0.00	0.00	1	1.0618932	9.397259	20.00	6	1.100	0.900
5032	2	0.00	0.00	0.00	0.00	1	1.0579664	23.147426	20.00	1	1.100	0.900
6101	1	0.00	0.00	0.00	0.00	1	1.0618430	18.665650	500.00	19	1.100	0.900
6102	1	971.08	-318.37	0.00	0.00	1	1.0300000	22.096427	345.00	19	1.100	0.900
6103	1	367.03	47.87	0.00	0.00	1	1.0217606	21.366223	345.00	19	1.100	0.900
...
];

%% generator data 
mpc.gen = [
1032	873.00	-60.85	200.00	-200.00	1.0131	895.62	1	873.00	174.60	0.00	0.00	0.00	0.00	0.00	0.00	0	0	0	0	873.0000
1032	705.88	-60.85	357.00	-357.00	1.0131	1109.03	1	1050.00	0.00	0.00	0.00	0.00	0.00	0.00	0.00	0	0	0	0	1050.0000
1032	331.60	-60.85	255.20	-255.20	1.0131	687.15	1	345.48	0.00	0.00	0.00	0.00	0.00	0.00	0.00	0	0	0	0	345.4770
1034	1944.00	24.23	500.00	-500.00	1.0302	2007.27	1	1944.00	388.80	0.00	0.00	0.00	0.00	0.00	0.00	0	0	0	0	1944.0000
1034	572.71	24.23	918.00	-918.00	1.0302	2851.79	1	2700.00	0.00	0.00	0.00	0.00	0.00	0.00	0.00	0	0	0	0	2700.0000
1034	747.49	24.23	672.80	-672.80	1.0302	1811.57	1	778.77	0.00	0.00	0.00	0.00	0.00	0.00	0.00	0	0	0	0	778.7660
1131	1268.00	-62.33	308.00	-308.00	1.0089	1304.87	1	1268.00	253.60	0.00	0.00	0.00	0.00	0.00	0.00	0	0	0	0	1268.0000
1131	4934.00	-62.33	1916.00	-1916.00	1.0089	5292.96	1	4934.00	0.00	0.00	0.00	0.00	0.00	0.00	0.00	0	0	0	0	4934.0000
1232	2505.41	-11.10	1208.00	-1208.00	1.0800	5121.50	1	4977.00	995.40	0.00	0.00	0.00	0.00	0.00	0.00	0	0	0	0	4977.0000
1232	266.05	-11.10	479.60	-479.60	1.0800	1291.36	1	712.93	0.00	0.00	0.00	0.00	0.00	0.00	0.00	0	0	0	0	712.9320
1331	2167.00	26.65	841.00	-841.00	1.0452	2324.47	1	2167.00	0.00	0.00	0.00	0.00	0.00	0.00	0.00	0	0	0	0	2167.0000
1331	308.66	26.65	931.20	-931.20	1.0452	2507.33	1	1384.24	0.00	0.00	0.00	0.00	0.00	0.00	0.00	0	0	0	0	1384.2410
1333	418.00	122.06	167.20	-167.20	1.0065	450.20	1	418.00	83.60	0.00	0.00	0.00	0.00	0.00	0.00	0	0	0	0	418.0000
1333	3949.15	122.06	2746.00	-2746.00	1.0065	7529.58	1	7011.00	0.00	0.00	0.00	0.00	0.00	0.00	0.00	0	0	0	0	7011.0000
1333	1103.13	122.06	969.20	-969.20	1.0065	2609.65	1	1153.95	0.00	0.00	0.00	0.00	0.00	0.00	0.00	0	0	0	0	1153.9540
1431	499.35	701.51	3559.00	-3559.00	1.0449	9836.43	1	9170.00	0.00	0.00	0.00	0.00	0.00	0.00	0.00	0	0	0	0	9170.0000
1431	2355.00	701.51	1684.00	-1684.00	1.0449	4534.31	1	2355.00	2355.00	0.00	0.00	0.00	0.00	0.00	0.00	0	0	0	0	2355.0000
1431	1123.20	701.51	967.60	-967.60	1.0449	2605.34	1	1170.19	0.00	0.00	0.00	0.00	0.00	0.00	0.00	0	0	0	0	1170.1910
2030	699.00	160.89	279.60	-279.60	1.0015	752.85	1	699.00	0.00	0.00	0.00	0.00	0.00	0.00	0.00	0	0	0	0	699.0000
2030	2140.00	160.89	856.00	-856.00	1.0015	2304.85	1	2140.00	0.00	0.00	0.00	0.00	0.00	0.00	0.00	0	0	0	0	2140.0000
2130	831.00	77.27	254.00	-254.00	1.0363	868.95	1	831.00	0.00	0.00	0.00	0.00	0.00	0.00	0.00	0	0	0	0	831.0000
2130	586.00	77.27	200.00	-200.00	1.0363	619.19	1	586.00	0.00	0.00	0.00	0.00	0.00	0.00	0.00	0	0	0	0	586.0000
2130	226.01	77.27	158.40	-158.40	1.0363	426.51	1	235.46	0.00	0.00	0.00	0.00	0.00	0.00	0.00	0	0	0	0	235.4640
2130	50.91	46.00	46.00	-46.00	1.0363	123.86	1	53.04	0.00	0.00	0.00	0.00	0.00	0.00	0.00	0	0	0	0	53.0440
2233	1035.00	125.00	304.00	-304.00	1.0067	1078.72	1	1035.00	0.00	0.00	0.00	0.00	0.00	0.00	0.00	0	0	0	0	1035.0000
2233	1837.00	125.00	611.00	-611.00	1.0067	1935.95	1	1837.00	0.00	0.00	0.00	0.00	0.00	0.00	0.00	0	0	0	0	1837.0000
2233	733.00	125.00	206.00	-206.00	1.0067	761.40	1	733.00	0.00	0.00	0.00	0.00	0.00	0.00	0.00	0	0	0	0	733.0000
2332	611.26	8.57	533.20	-533.20	1.0350	1435.69	1	626.84	0.00	0.00	0.00	0.00	0.00	0.00	0.00	0	0	0	0	626.8430
2431	665.27	202.37	666.40	-666.40	1.0500	1794.34	1	682.23	0.00	0.00	0.00	0.00	0.00	0.00	0.00	0	0	0	0	682.2270
2434	566.28	-104.63	500.00	-500.00	1.0200	1570.71	1	580.71	0.00	0.00	0.00	0.00	0.00	0.00	0.00	0	0	0	0	580.7100
2438	126.91	212.72	728.00	-728.00	1.0561	2404.84	1	2292.00	0.00	0.00	0.00	0.00	0.00	0.00	0.00	0	0	0	0	2292.0000
% 2438	0.00	0.00	0.50	-0.50	1.0561	0.50	0	0.00	-1006.00	0.00	0.00	0.00	0.00	0.00	0.00	0	0	0	0	0.0000
2438	1666.91	212.72	1902.00	-1902.00	1.0561	5773.30	1	5451.00	0.00	0.00	0.00	0.00	0.00	0.00	0.00	0	0	0	0	5451.0000
2438	493.66	212.72	458.40	-458.40	1.0561	1234.28	1	506.25	0.00	0.00	0.00	0.00	0.00	0.00	0.00	0	0	0	0	506.2460
2438	1579.49	212.72	1644.00	-1644.00	1.0561	4426.60	1	4110.00	0.00	0.00	0.00	0.00	0.00	0.00	0.00	0	0	0	0	4110.0000
2438	846.55	212.72	584.00	-584.00	1.0561	1572.47	1	868.12	0.00	0.00	0.00	0.00	0.00	0.00	0.00	0	0	0	0	868.1240
2438	134.60	212.72	561.00	-561.00	1.0561	3258.65	1	138.03	0.00	0.00	0.00	0.00	0.00	0.00	0.00	0	0	0	0	138.0300
2438	4401.98	212.72	1910.00	-1910.00	1.0561	6122.55	1	5817.00	0.00	0.00	0.00	0.00	0.00	0.00	0.00	0	0	0	0	5817.0000
2439	738.38	-113.99	666.40	-666.40	1.0199	1794.34	1	757.20	0.00	0.00	0.00	0.00	0.00	0.00	0.00	0	0	0	0	757.1970
2533	907.89	391.41	799.60	-799.60	1.0109	2152.99	1	931.03	0.00	0.00	0.00	0.00	0.00	0.00	0.00	0	0	0	0	931.0340
% add generator at bus 2600: P{mean,min,max} = {1208.93, 0, 1601.85}, Q=P/3
2600    1208.93 1208.93/3 600   -600    1.01    2000    1    	2000.00	0.00	0.00	0.00	0.00	0.00	0.00	0.00	0	0	0	0	2000.0000
% add generator at bus 2619: P{mean,min,max} = {2014.18, 1482.65, 2566.32}, Q=P/3
2619    1482.65 1482.65/3   500 -500    1.0095      3000    1   3000.00 0.00	0.00	0.00	0.00	0.00	0.00	0.00	0	0	0	0	3000.0000
2630	3947.00	1162.40	1346.00	-1346.00	1.0096	4170.19	1	3947.00	0.00	0.00	0.00	0.00	0.00	0.00	0.00	0	0	0	0	3947.0000
2631	83.48	208.00	208.00	-208.00	0.9961	560.06	1	86.97	0.00	0.00	0.00	0.00	0.00	0.00	0.00	0	0	0	0	86.9700
2634	1618.00	-45.96	647.20	-647.20	1.0297	1742.64	1	1618.00	323.60	0.00	0.00	0.00	0.00	0.00	0.00	0	0	0	0	1618.0000
2637	50.45	34.80	34.80	-34.80	0.9868	93.70	1	51.73	0.00	0.00	0.00	0.00	0.00	0.00	0.00	0	0	0	0	51.7310
2638	235.99	100.00	100.00	-100.00	0.9981	419.11	1	242.00	0.00	0.00	0.00	0.00	0.00	0.00	0.00	0	0	0	0	242.0040
3133	62.00	24.80	24.80	-24.80	0.9878	66.78	1	62.00	0.00	0.00	0.00	0.00	0.00	0.00	0.00	0	0	0	0	62.0000
% 3133	0.00	0.00	500.00	-500.00	0.9878	500.00	0	0.10	0.00	0.00	0.00	0.00	0.00	0.00	0.00	0	0	0	0	0.1000
3135	465.78	90.18	216.40	-216.40	1.0005	582.67	1	541.00	0.00	0.00	0.00	0.00	0.00	0.00	0.00	0	0	0	0	541.0000
3135	38.00	15.20	15.20	-15.20	1.0005	40.93	1	38.00	0.00	0.00	0.00	0.00	0.00	0.00	0.00	0	0	0	0	38.0000
3234	0.00	70.80	70.80	-70.80	1.0139	190.63	1	177.00	0.00	0.00	0.00	0.00	0.00	0.00	0.00	0	0	0	0	177.0000
3234	3853.00	332.82	1244.00	-1244.00	1.0139	4048.84	1	3853.00	0.00	0.00	0.00	0.00	0.00	0.00	0.00	0	0	0	0	3853.0000
3234	990.06	332.82	382.00	-382.00	1.0139	1105.12	1	1037.00	0.00	0.00	0.00	0.00	0.00	0.00	0.00	0	0	0	0	1037.0000
3234	1443.94	150.00	150.00	-150.00	1.0139	1746.45	1	1480.74	0.00	0.00	0.00	0.00	0.00	0.00	0.00	0	0	0	0	1480.7400
3333	1012.00	193.48	398.00	-398.00	1.0016	1087.45	1	1012.00	0.00	0.00	0.00	0.00	0.00	0.00	0.00	0	0	0	0	1012.0000
3333	312.00	124.80	124.80	-124.80	1.0016	336.03	1	312.00	0.00	0.00	0.00	0.00	0.00	0.00	0.00	0	0	0	0	312.0000
3432	0.00	0.00	1498.40	-1498.40	0.9396	4034.56	0	815.27	0.00	0.00	0.00	0.00	0.00	0.00	0.00	0	0	0	0	815.2680
3433	921.00	87.53	231.00	-231.00	1.0009	949.53	1	921.00	0.00	0.00	0.00	0.00	0.00	0.00	0.00	0	0	0	0	921.0000
3433	434.90	87.53	570.40	-570.40	1.0009	1535.85	1	445.98	0.00	0.00	0.00	0.00	0.00	0.00	0.00	0	0	0	0	445.9820
3531	1388.61	104.63	569.60	-569.60	1.0010	1533.69	1	1424.00	0.00	0.00	0.00	0.00	0.00	0.00	0.00	0	0	0	0	1424.0000
3531	519.75	104.63	213.20	-213.20	1.0010	574.06	1	533.00	0.00	0.00	0.00	0.00	0.00	0.00	0.00	0	0	0	0	533.0000
3531	13.92	9.60	9.60	-9.60	1.0010	25.85	1	14.27	0.00	0.00	0.00	0.00	0.00	0.00	0.00	0	0	0	0	14.2710
3631	70.48	-20.00	20.00	-20.00	1.0148	98.06	1	72.27	0.00	0.00	0.00	0.00	0.00	0.00	0.00	0	0	0	0	72.2720
3631	125.52	-22.42	74.00	-74.00	1.0148	222.66	1	210.00	0.00	0.00	0.00	0.00	0.00	0.00	0.00	0	0	0	0	210.0000
3731	140.90	-14.23	97.20	-97.20	0.9999	261.72	1	144.49	0.00	0.00	0.00	0.00	0.00	0.00	0.00	0	0	0	0	144.4890
3831	2108.00	15.78	929.20	-929.20	1.0490	2501.95	1	2108.00	2108.00	0.00	0.00	0.00	0.00	0.00	0.00	0	0	0	0	2108.0000
% 3835	0.00	0.00	0.50	-0.50	1.0360	0.50	0	0.00	-510.00	0.00	0.00	0.00	0.00	0.00	0.00	0	0	0	0	0.0000
3835	966.98	103.27	662.00	-662.00	1.0360	2130.46	1	2025.00	0.00	0.00	0.00	0.00	0.00	0.00	0.00	0	0	0	0	2025.0000
3835	578.12	103.27	500.00	-500.00	1.0360	1423.69	1	592.85	0.00	0.00	0.00	0.00	0.00	0.00	0.00	0	0	0	0	592.8520
3836	1497.00	84.66	476.00	-476.00	1.0194	1570.85	1	1497.00	0.00	0.00	0.00	0.00	0.00	0.00	0.00	0	0	0	0	1497.0000
3931	416.27	41.55	151.00	-151.00	1.0704	586.76	1	426.88	0.00	0.00	0.00	0.00	0.00	0.00	0.00	0	0	0	0	426.8750
3931	749.49	41.55	1150.00	-1150.00	1.0704	3096.47	1	1709.49	0.00	0.00	0.00	0.00	0.00	0.00	0.00	0	0	0	0	1709.4910
3932	484.96	-203.85	570.40	-570.40	0.9990	1535.85	1	497.32	0.00	0.00	0.00	0.00	0.00	0.00	0.00	0	0	0	0	497.3180
3933	599.68	155.38	346.00	-346.00	1.0200	931.63	1	865.00	0.00	0.00	0.00	0.00	0.00	0.00	0.00	0	0	0	0	865.0000
3933	253.29	77.00	77.00	-77.00	1.0200	353.49	1	259.74	0.00	0.00	0.00	0.00	0.00	0.00	0.00	0	0	0	0	259.7430
% 3933	0.00	0.00	0.50	-0.50	1.0200	0.50	0	0.00	-449.00	0.00	0.00	0.00	0.00	0.00	0.00	0	0	0	0	0.0000
3933	0.00	155.38	500.00	-500.00	1.0200	1990.81	1	1927.00	0.00	0.00	0.00	0.00	0.00	0.00	0.00	0	0	0	0	1927.0000
3933	1579.45	155.38	1089.60	-1089.60	1.0200	2933.84	1	1619.71	0.00	0.00	0.00	0.00	0.00	0.00	0.00	0	0	0	0	1619.7050
3933	629.24	155.38	200.00	-200.00	1.0200	766.55	1	645.28	0.00	0.00	0.00	0.00	0.00	0.00	0.00	0	0	0	0	645.2800
3933	639.54	155.38	533.20	-533.20	1.0200	1435.69	1	655.84	0.00	0.00	0.00	0.00	0.00	0.00	0.00	0	0	0	0	655.8360
4031	0.00	-473.36	502.00	-502.00	1.0741	2756.10	1	2710.00	0.00	0.00	0.00	0.00	0.00	0.00	0.00	0	0	0	0	2710.0000
4031	124.63	-380.80	380.80	-380.80	1.0741	1025.33	1	130.37	0.00	0.00	0.00	0.00	0.00	0.00	0.00	0	0	0	0	130.3740
4031	206.96	-170.80	170.80	-170.80	1.0741	459.89	1	216.49	0.00	0.00	0.00	0.00	0.00	0.00	0.00	0	0	0	0	216.4890
4031	55.24	-240.00	240.00	-240.00	1.0741	678.84	1	57.78	0.00	0.00	0.00	0.00	0.00	0.00	0.00	0	0	0	0	57.7850
4035	642.00	-56.59	255.00	-255.00	1.0789	690.79	1	642.00	128.40	0.00	0.00	0.00	0.00	0.00	0.00	0	0	0	0	642.0000
4035	0.00	-56.59	307.00	-307.00	1.0789	1684.22	1	1656.00	0.00	0.00	0.00	0.00	0.00	0.00	0.00	0	0	0	0	1656.0000
4035	466.60	-56.59	1428.80	-1428.80	1.0789	3847.16	1	488.09	0.00	0.00	0.00	0.00	0.00	0.00	0.00	0	0	0	0	488.0920
4035	165.12	-56.59	800.00	-800.00	1.0789	2699.27	1	172.73	0.00	0.00	0.00	0.00	0.00	0.00	0.00	0	0	0	0	172.7260
4039	0.00	60.00	60.00	-60.00	1.0853	161.55	1	150.00	0.00	0.00	0.00	0.00	0.00	0.00	0.00	0	0	0	0	150.0000
4039	968.67	604.08	1135.60	-1135.60	1.0853	3057.70	1	1013.30	0.00	0.00	0.00	0.00	0.00	0.00	0.00	0	0	0	0	1013.2960
4039	937.16	500.00	500.00	-500.00	1.0853	1383.51	1	1124.88	0.00	0.00	0.00	0.00	0.00	0.00	0.00	0	0	0	0	1124.8800
4131	511.72	150.00	150.00	-150.00	1.1309	726.65	1	535.30	0.00	0.00	0.00	0.00	0.00	0.00	0.00	0	0	0	0	535.2970
4131	7169.47	501.56	5045.20	-5045.20	1.1309	13584.62	1	7499.76	0.00	0.00	0.00	0.00	0.00	0.00	0.00	0	0	0	0	7499.7578
4131	188.05	120.00	120.00	-120.00	1.1309	799.06	1	196.71	0.00	0.00	0.00	0.00	0.00	0.00	0.00	0	0	0	0	196.7100
4132	0.00	60.97	868.00	-868.00	1.0970	2337.16	1	2170.00	0.00	0.00	0.00	0.00	0.00	0.00	0.00	0	0	0	0	2170.0000
4132	2364.07	60.97	2215.60	-2215.60	1.0970	5965.69	1	2472.98	0.00	0.00	0.00	0.00	0.00	0.00	0.00	0	0	0	0	2472.9771
4132	1000.00	60.97	231.00	-231.00	1.0970	1222.03	1	1000.00	1000.00	0.00	0.00	0.00	0.00	0.00	0.00	0	0	0	0	1000.0000
4132	24.95	60.97	120.00	-120.00	1.0970	323.11	1	26.10	0.00	0.00	0.00	0.00	0.00	0.00	0.00	0	0	0	0	26.1000
4231	1460.00	458.51	584.00	-584.00	1.1257	1572.47	1	1460.00	292.00	0.00	0.00	0.00	0.00	0.00	0.00	0	0	0	0	1460.0000
4231	641.51	388.00	388.00	-388.00	1.1257	1044.72	1	970.00	0.00	0.00	0.00	0.00	0.00	0.00	0.00	0	0	0	0	970.0000
4231	1765.76	458.51	1406.80	-1406.80	1.1257	3787.93	1	1847.11	0.00	0.00	0.00	0.00	0.00	0.00	0.00	0	0	0	0	1847.1090
4232	207.42	-186.90	348.80	-348.80	1.0577	939.17	1	872.00	0.00	0.00	0.00	0.00	0.00	0.00	0.00	0	0	0	0	872.0000
4232	73.10	-186.90	223.20	-223.20	1.0577	600.98	1	76.46	0.00	0.00	0.00	0.00	0.00	0.00	0.00	0	0	0	0	76.4650
4232	0.00	-108.00	108.00	-108.00	1.0577	703.34	1	0.00	0.00	0.00	0.00	0.00	0.00	0.00	0.00	0	0	0	0	0.0000
5031	622.00	605.00	605.00	-605.00	1.0619	2718.18	1	2650.00	0.00	0.00	0.00	0.00	0.00	0.00	0.00	0	0	0	0	2650.0000
5031	5032.20	1991.42	4298.80	-4298.80	1.0619	11574.87	1	5264.03	0.00	0.00	0.00	0.00	0.00	0.00	0.00	0	0	0	0	5264.0298
5032	11252.46	256.90	2977.00	-2977.00	1.0580	13374.53	1	13039.00	2607.80	0.00	0.00	0.00	0.00	0.00	0.00	0	0	0	0	13039.0000
5032	0.00	256.90	2200.00	-2200.00	1.0580	9883.95	1	9636.00	0.00	0.00	0.00	0.00	0.00	0.00	0.00	0	0	0	0	9636.0000
5032	67.80	43.20	43.20	-43.20	1.0580	116.32	1	70.92	0.00	0.00	0.00	0.00	0.00	0.00	0.00	0	0	0	0	70.9190
5032	2102.72	256.90	1764.08	-1764.08	1.0580	4749.93	1	2199.59	0.00	0.00	0.00	0.00	0.00	0.00	0.00	0	0	0	0	2199.5869
5032	23.27	216.40	216.40	-216.40	1.0580	582.67	1	24.34	0.00	0.00	0.00	0.00	0.00	0.00	0.00	0	0	0	0	24.3450
6132	87.81	-20.00	20.00	-20.00	1.0267	123.63	1	91.85	0.00	0.00	0.00	0.00	0.00	0.00	0.00	0	0	0	0	91.8510
6132	0.00	-147.00	147.00	-147.00	1.0267	1280.47	1	1272.00	0.00	0.00	0.00	0.00	0.00	0.00	0.00	0	0	0	0	1272.0000
6132	1385.16	-220.35	1016.40	-1016.40	1.0267	2736.74	1	1510.89	0.00	0.00	0.00	0.00	0.00	0.00	0.00	0	0	0	0	1510.8920
6132	198.52	-75.00	75.00	-75.00	1.0267	402.06	1	207.67	0.00	0.00	0.00	0.00	0.00	0.00	0.00	0	0	0	0	207.6710
6132	541.35	-210.00	210.00	-210.00	1.0267	995.40	1	566.29	0.00	0.00	0.00	0.00	0.00	0.00	0.00	0	0	0	0	566.2860
6231	2063.55	-19.50	995.20	-995.20	1.0598	2679.66	1	2488.00	497.60	0.00	0.00	0.00	0.00	0.00	0.00	0	0	0	0	2488.0000
6231	0.00	-19.50	70.00	-70.00	1.0598	259.61	1	250.00	0.00	0.00	0.00	0.00	0.00	0.00	0.00	0	0	0	0	250.0000
6235	0.00	46.01	64.00	-64.00	1.0506	234.89	1	226.00	0.00	0.00	0.00	0.00	0.00	0.00	0.00	0	0	0	0	226.0000
6235	1212.90	46.01	347.00	-347.00	1.0506	2693.45	1	1588.19	0.00	0.00	0.00	0.00	0.00	0.00	0.00	0	0	0	0	1588.1910
6235	31.66	46.01	195.00	-195.00	1.0506	745.94	1	33.12	0.00	0.00	0.00	0.00	0.00	0.00	0.00	0	0	0	0	33.1200
6333	4594.00	346.34	1671.00	-1671.00	1.0331	4888.46	1	4594.00	918.80	0.00	0.00	0.00	0.00	0.00	0.00	0	0	0	0	4594.0000
6333	0.00	346.34	350.00	-350.00	1.0331	1529.58	1	1298.41	0.00	0.00	0.00	0.00	0.00	0.00	0.00	0	0	0	0	1298.4080
6335	2660.00	480.76	968.00	-968.00	1.0635	2830.66	1	2660.00	532.00	0.00	0.00	0.00	0.00	0.00	0.00	0	0	0	0	2660.0000
6335	0.00	167.20	167.20	-167.20	1.0635	450.20	1	418.00	0.00	0.00	0.00	0.00	0.00	0.00	0.00	0	0	0	0	418.0000
6335	0.00	121.20	121.20	-121.20	1.0635	326.34	1	180.16	0.00	0.00	0.00	0.00	0.00	0.00	0.00	0	0	0	0	180.1650
6433	391.00	132.75	156.40	-156.40	1.1117	421.12	1	391.00	78.20	0.00	0.00	0.00	0.00	0.00	0.00	0	0	0	0	391.0000
6433	751.00	59.00	59.00	-59.00	1.1117	753.31	1	751.00	0.00	0.00	0.00	0.00	0.00	0.00	0.00	0	0	0	0	751.0000
6433	475.06	132.75	536.00	-536.00	1.1117	1470.19	1	1369.00	0.00	0.00	0.00	0.00	0.00	0.00	0.00	0	0	0	0	1369.0000
6433	5.09	50.00	50.00	-50.00	1.1117	160.01	1	5.32	0.00	0.00	0.00	0.00	0.00	0.00	0.00	0	0	0	0	5.3200
6533	3276.00	104.77	1310.40	-1310.40	1.0667	3528.36	1	3276.00	655.20	0.00	0.00	0.00	0.00	0.00	0.00	0	0	0	0	3276.0000
6533	87.24	104.77	880.00	-880.00	1.0667	3356.42	1	3239.00	0.00	0.00	0.00	0.00	0.00	0.00	0.00	0	0	0	0	3239.0000
6533	156.32	75.00	75.00	-75.00	1.0667	285.04	1	163.52	0.00	0.00	0.00	0.00	0.00	0.00	0.00	0	0	0	0	163.5160
6533	604.26	104.77	500.00	-500.00	1.0667	1493.20	1	632.09	0.00	0.00	0.00	0.00	0.00	0.00	0.00	0	0	0	0	632.0950
6533	21.31	20.00	20.00	-20.00	1.0667	391.51	1	22.29	0.00	0.00	0.00	0.00	0.00	0.00	0.00	0	0	0	0	22.2870
7031	3127.00	149.45	1250.80	-1250.80	1.0228	3367.88	1	3127.00	625.40	0.00	0.00	0.00	0.00	0.00	0.00	0	0	0	0	3127.0000
7031	229.65	149.45	2092.00	-2092.00	1.0228	6681.93	1	6346.00	0.00	0.00	0.00	0.00	0.00	0.00	0.00	0	0	0	0	6346.0000
7031	152.06	149.45	175.00	-175.00	1.0228	538.24	1	159.07	0.00	0.00	0.00	0.00	0.00	0.00	0.00	0	0	0	0	159.0670
% 7031	0.00	0.00	1000.00	-1000.00	1.0228	1000.00	0	0.10	0.00	0.00	0.00	0.00	0.00	0.00	0.00	0	0	0	0	0.1000
7031	0.00	149.45	1000.00	-1000.00	1.0228	3263.01	1	0.00	0.00	0.00	0.00	0.00	0.00	0.00	0.00	0	0	0	0	0.0000
7032	1821.00	-95.66	728.40	-728.40	1.0130	1961.28	1	1821.00	364.20	0.00	0.00	0.00	0.00	0.00	0.00	0	0	0	0	1821.0000
7032	981.09	-95.66	489.00	-489.00	1.0130	1561.54	1	1483.00	0.00	0.00	0.00	0.00	0.00	0.00	0.00	0	0	0	0	1483.0000
7032	381.98	-95.66	268.80	-268.80	1.0130	723.77	1	399.58	0.00	0.00	0.00	0.00	0.00	0.00	0.00	0	0	0	0	399.5750
7032	12.70	-95.66	230.00	-230.00	1.0130	773.01	1	13.28	0.00	0.00	0.00	0.00	0.00	0.00	0.00	0	0	0	0	13.2840
8033	792.38	335.37	557.60	-557.60	1.0766	1501.38	1	828.88	0.00	0.00	0.00	0.00	0.00	0.00	0.00	0	0	0	0	828.8800
8034	3754.00	329.99	1280.00	-1280.00	1.0025	3966.22	1	3754.00	0.00	0.00	0.00	0.00	0.00	0.00	0.00	0	0	0	0	3754.0000
8034	309.22	217.60	217.60	-217.60	1.0025	585.91	1	323.46	0.00	0.00	0.00	0.00	0.00	0.00	0.00	0	0	0	0	323.4650
];

%% generator cost data
mpc.gencost = [
%     delete 5, add 2 (same parameter)
% 2	0	0	4	0	0	1	0
% 2	0	0	4	0	0	1	0
% 2	0	0	4	0	0	1	0
2	0	0	4	0	0	1	0
2	0	0	4	0	0	1	0
2	0	0	4	0	0	1	0
2	0	0	4	0	0	1	0
2	0	0	4	0	0	1	0
2	0	0	4	0	0	1	0
2	0	0	4	0	0	1	0
2	0	0	4	0	0	1	0
2	0	0	4	0	0	1	0
2	0	0	4	0	0	1	0
2	0	0	4	0	0	1	0
2	0	0	4	0	0	1	0
2	0	0	4	0	0	1	0
2	0	0	4	0	0	1	0
2	0	0	4	0	0	1	0
2	0	0	4	0	0	1	0
2	0	0	4	0	0	1	0
2	0	0	4	0	0	1	0
2	0	0	4	0	0	1	0
2	0	0	4	0	0	1	0
2	0	0	4	0	0	1	0
2	0	0	4	0	0	1	0
2	0	0	4	0	0	1	0
2	0	0	4	0	0	1	0
2	0	0	4	0	0	1	0
2	0	0	4	0	0	1	0
2	0	0	4	0	0	1	0
2	0	0	4	0	0	1	0
2	0	0	4	0	0	1	0
2	0	0	4	0	0	1	0
2	0	0	4	0	0	1	0
2	0	0	4	0	0	1	0
2	0	0	4	0	0	1	0
2	0	0	4	0	0	1	0
2	0	0	4	0	0	1	0
2	0	0	4	0	0	1	0
2	0	0	4	0	0	1	0
2	0	0	4	0	0	1	0
2	0	0	4	0	0	1	0
2	0	0	4	0	0	1	0
2	0	0	4	0	0	1	0
2	0	0	4	0	0	1	0
2	0	0	4	0	0	1	0
2	0	0	4	0	0	1	0
2	0	0	4	0	0	1	0
2	0	0	4	0	0	1	0
2	0	0	4	0	0	1	0
2	0	0	4	0	0	1	0
2	0	0	4	0	0	1	0
2	0	0	4	0	0	1	0
2	0	0	4	0	0	1	0
2	0	0	4	0	0	1	0
2	0	0	4	0	0	1	0
2	0	0	4	0	0	1	0
2	0	0	4	0	0	1	0
2	0	0	4	0	0	1	0
2	0	0	4	0	0	1	0
2	0	0	4	0	0	1	0
2	0	0	4	0	0	1	0
2	0	0	4	0	0	1	0
2	0	0	4	0	0	1	0
2	0	0	4	0	0	1	0
2	0	0	4	0	0	1	0
2	0	0	4	0	0	1	0
2	0	0	4	0	0	1	0
2	0	0	4	0	0	1	0
2	0	0	4	0	0	1	0
2	0	0	4	0	0	1	0
2	0	0	4	0	0	1	0
2	0	0	4	0	0	1	0
2	0	0	4	0	0	1	0
2	0	0	4	0	0	1	0
2	0	0	4	0	0	1	0
2	0	0	4	0	0	1	0
2	0	0	4	0	0	1	0
2	0	0	4	0	0	1	0
2	0	0	4	0	0	1	0
2	0	0	4	0	0	1	0
2	0	0	4	0	0	1	0
2	0	0	4	0	0	1	0
2	0	0	4	0	0	1	0
2	0	0	4	0	0	1	0
2	0	0	4	0	0	1	0
2	0	0	4	0	0	1	0
2	0	0	4	0	0	1	0
2	0	0	4	0	0	1	0
2	0	0	4	0	0	1	0
2	0	0	4	0	0	1	0
2	0	0	4	0	0	1	0
2	0	0	4	0	0	1	0
2	0	0	4	0	0	1	0
2	0	0	4	0	0	1	0
2	0	0	4	0	0	1	0
2	0	0	4	0	0	1	0
2	0	0	4	0	0	1	0
2	0	0	4	0	0	1	0
2	0	0	4	0	0	1	0
2	0	0	4	0	0	1	0
2	0	0	4	0	0	1	0
2	0	0	4	0	0	1	0
2	0	0	4	0	0	1	0
2	0	0	4	0	0	1	0
2	0	0	4	0	0	1	0
2	0	0	4	0	0	1	0
2	0	0	4	0	0	1	0
2	0	0	4	0	0	1	0
2	0	0	4	0	0	1	0
2	0	0	4	0	0	1	0
2	0	0	4	0	0	1	0
2	0	0	4	0	0	1	0
2	0	0	4	0	0	1	0
2	0	0	4	0	0	1	0
2	0	0	4	0	0	1	0
2	0	0	4	0	0	1	0
2	0	0	4	0	0	1	0
2	0	0	4	0	0	1	0
2	0	0	4	0	0	1	0
2	0	0	4	0	0	1	0
2	0	0	4	0	0	1	0
2	0	0	4	0	0	1	0
2	0	0	4	0	0	1	0
2	0	0	4	0	0	1	0
2	0	0	4	0	0	1	0
2	0	0	4	0	0	1	0
2	0	0	4	0	0	1	0
2	0	0	4	0	0	1	0
2	0	0	4	0	0	1	0
2	0	0	4	0	0	1	0
2	0	0	4	0	0	1	0
2	0	0	4	0	0	1	0
2	0	0	4	0	0	1	0
2	0	0	4	0	0	1	0
2	0	0	4	0	0	1	0
2	0	0	4	0	0	1	0
2	0	0	4	0	0	1	0
2	0	0	4	0	0	1	0
2	0	0	4	0	0	1	0
2	0	0	4	0	0	1	0
2	0	0	4	0	0	1	0
2	0	0	4	0	0	1	0
2	0	0	4	0	0	1	0
2	0	0	4	0	0	1	0
2	0	0	4	0	0	1	0
];

%% branch data
mpc.branch = [
1001	1002	0.000000	0.011000	0.00000	99999.00	0.00	0.00	1.00000	0.000	1	0.00	0.00	-376.88	209.42	376.88	-190.35
1001	1002	0.000000	0.011000	0.00000	99999.00	0.00	0.00	1.00000	0.000	1	0.00	0.00	-376.88	209.42	376.88	-190.35
1001	1201	0.001770	0.031690	3.34460	2000.00	0.00	0.00	0.00000	0.000	1	0.00	0.00	608.84	-346.84	-602.26	85.68
1001	1202	0.010800	0.096500	0.32960	2001.00	0.00	0.00	0.00000	0.000	1	0.00	0.00	144.92	-72.00	-142.50	56.66
1002	1003	0.000280	0.013800	0.00000	99999.00	0.00	430.00	1.00000	0.000	1	0.00	0.00	1173.46	406.55	-1169.26	-199.55
1002	1003	0.000290	0.013900	0.00000	99999.00	0.00	430.00	1.00000	0.000	1	0.00	0.00	1165.24	402.95	-1160.95	-197.44
1002	1004	0.000500	0.005300	0.08820	5000.00	0.00	0.00	0.00000	0.000	1	0.00	0.00	-1367.63	-134.96	1376.81	223.04
1002	1032	0.000000	0.000500	0.00000	3000.00	0.00	0.00	1.00000	0.000	1	0.00	0.00	-1910.48	200.50	1910.48	-182.55
1002	1102	0.001790	0.019880	2.57600	2000.00	0.00	0.00	0.00000	0.000	1	0.00	0.00	43.18	-172.93	-43.12	-93.14
1002	1102	0.001790	0.019880	2.57600	2000.00	0.00	0.00	0.00000	0.000	1	0.00	0.00	43.18	-172.93	-43.12	-93.14
1002	6506	0.004800	0.043600	0.70780	800.00	0.00	0.00	0.00000	0.000	1	0.00	0.00	-174.49	-103.25	176.12	42.39
1004	1034	0.000000	0.000500	0.00000	99999.00	0.00	0.00	1.00000	0.000	1	0.00	0.00	-3264.20	-22.47	3264.21	72.69
1004	7001	0.008110	0.136900	2.43480	500.00	0.00	0.00	0.00000	0.000	1	0.00	0.00	154.85	-115.19	-153.00	-109.43
1004	7002	0.009770	0.110000	2.00000	500.00	0.00	0.00	0.00000	0.000	1	0.00	0.00	147.57	-93.80	-145.55	-92.58
1101	1102	0.000000	0.014600	0.00000	99999.00	0.00	0.00	1.00000	0.000	1	0.00	0.00	66.94	-77.30	-66.94	78.79
1101	1102	0.000000	0.014600	0.00000	99999.00	0.00	0.00	1.00000	0.000	1	0.00	0.00	66.94	-77.30	-66.94	78.79
1101	1131	0.000000	0.000500	0.00000	99999.00	0.00	0.00	1.00000	0.000	1	0.00	0.00	-6201.96	313.70	6202.00	-124.69
1101	1401	0.002800	0.021100	1.01940	2500.00	0.00	1630.00	0.00000	0.000	1	0.00	0.00	1900.44	-45.23	-1801.31	685.69
1101	1401	0.002800	0.021100	1.01940	2500.00	0.00	1630.00	0.00000	0.000	1	0.00	0.00	1900.44	-45.23	-1801.31	685.69
1201	1202	0.000770	0.005360	1.39842	2001.00	0.00	0.00	0.00000	0.000	1	0.00	0.00	-896.06	323.84	902.31	-445.44
1201	1402	0.001790	0.025920	3.39220	2001.00	0.00	0.00	0.00000	0.000	1	0.00	0.00	1062.87	-13.62	-1045.40	-126.68
1201	2901	0.002070	0.013690	3.95160	2001.00	0.00	0.00	0.00000	0.000	1	0.00	0.00	247.01	-393.63	-245.52	-75.23
1202	1232	0.000000	0.000500	0.00000	2772.00	0.00	2000.00	1.00000	0.000	1	0.00	0.00	-2771.45	55.13	2771.46	-22.20
1202	1302	0.002800	0.021100	1.01940	2001.00	0.00	1630.00	0.00000	0.000	1	0.00	0.00	102.27	165.62	-100.80	-268.50
1202	1402	0.002410	0.034890	4.86560	2001.00	0.00	0.00	0.00000	0.000	1	0.00	0.00	917.20	-157.32	-899.49	-143.67
1301	1302	0.002800	0.021100	1.01940	2001.00	0.00	1630.00	0.00000	0.000	1	0.00	0.00	-509.89	95.71	517.14	-151.16
1301	1331	0.000000	0.000500	0.00000	99999.00	0.00	0.00	1.00000	0.000	1	0.00	0.00	-2475.65	-25.24	2475.66	53.31
1301	1402	0.002800	0.021100	1.01940	2001.00	0.00	1630.00	0.00000	0.000	1	0.00	0.00	836.75	-172.63	-818.45	197.60
1301	1402	0.006200	0.067300	1.11560	2001.00	0.00	0.00	0.00000	0.000	1	0.00	0.00	264.79	-87.17	-260.77	7.18
1301	2603	0.001790	0.025240	0.53546	2001.00	0.00	0.00	0.00000	0.000	1	0.00	0.00	-256.67	-18.66	257.75	-24.77
1301	2901	0.010800	0.096500	0.32960	2001.00	0.00	0.00	0.00000	0.000	1	0.00	0.00	-58.92	-78.95	59.63	47.05
1302	1303	0.000000	0.007200	0.00000	600.00	0.00	1500.00	1.00000	0.000	1	0.00	0.00	-430.65	417.79	430.65	-393.53
1303	1333	0.000000	0.000500	0.00000	99999.00	0.00	0.00	1.00000	0.000	1	0.00	0.00	-5470.25	-217.81	5470.28	366.18
1303	6507	0.008110	0.136900	1.11560	600.00	0.00	0.00	0.00000	0.000	1	0.00	0.00	-153.31	-66.07	155.20	-19.95
1401	1402	0.000400	0.009600	0.90380	2001.00	0.00	0.00	0.00000	0.000	1	0.00	0.00	645.87	-328.69	-644.02	273.90
1401	1402	0.000400	0.009600	0.90380	2001.00	0.00	0.00	0.00000	0.000	1	0.00	0.00	645.87	-328.69	-644.02	273.90
1401	1403	0.000280	0.013800	0.00000	99999.00	0.00	430.00	1.00000	0.000	1	0.00	0.00	-38.48	-2.56	38.48	2.75
1401	1431	0.000000	0.000500	0.00000	4500.00	0.00	3066.00	1.00000	0.000	1	0.00	0.00	-3977.53	-2011.81	3977.55	2104.54
1401	2301	0.002590	0.029670	2.15300	1800.00	0.00	1800.00	0.00000	0.000	1	0.00	0.00	-295.31	-81.90	297.44	-124.57
1401	2400	0.002590	0.029670	2.15300	1800.00	0.00	1800.00	0.00000	0.000	1	0.00	0.00	259.89	-101.92	-258.26	-108.25
1403	2100	0.008450	0.070340	0.15954	2001.00	0.00	1160.00	0.00000	0.000	1	0.00	0.00	-38.48	-2.75	38.60	-13.35
2000	2030	0.000000	0.000500	0.00000	99999.00	0.00	0.00	1.00000	0.000	1	0.00	0.00	-2838.99	-281.08	2839.00	321.77
2000	2202	0.001380	0.053990	0.15252	888.00	986.00	888.00	0.00000	0.000	1	0.00	0.00	410.62	57.10	-408.23	21.18
2000	2302	0.001380	0.053990	0.15252	888.00	986.00	888.00	0.00000	0.000	1	0.00	0.00	195.13	-67.33	-194.56	74.01
2100	2130	0.000000	0.000500	0.00000	99999.00	0.00	0.00	1.00000	0.000	1	0.00	0.00	-1693.92	-264.09	1693.92	277.81
2100	2302	0.008450	0.070340	0.15954	2001.00	0.00	1160.00	0.00000	0.000	1	0.00	0.00	-102.05	7.27	102.89	-17.35
2100	2400	0.000280	0.013800	0.00000	99999.00	0.00	430.00	1.00000	0.000	1	0.00	0.00	793.27	82.15	-791.61	-0.22
2201	2202	0.000000	0.005000	0.00000	99999.00	0.00	0.00	1.00000	0.000	1	0.00	0.00	201.11	119.11	-201.11	-116.32
2201	2202	0.000000	0.005000	0.00000	99999.00	0.00	0.00	1.00000	0.000	1	0.00	0.00	201.11	119.11	-201.11	-116.32
2201	2301	0.001790	0.025240	2.15300	1800.00	0.00	1800.00	0.00000	0.000	1	0.00	0.00	-402.21	-238.22	405.49	63.15
2202	2203	0.003120	0.028860	0.15252	888.00	986.00	888.00	0.00000	0.000	1	0.00	0.00	-440.96	-1.19	447.22	44.01
2202	2203	0.003120	0.028860	0.15252	888.00	986.00	888.00	0.00000	0.000	1	0.00	0.00	-440.96	-1.19	447.22	44.01
2202	2503	0.003120	0.028860	0.15252	888.00	986.00	888.00	0.00000	0.000	1	0.00	0.00	-38.27	-86.80	38.52	73.96
2203	2233	0.000000	0.000500	0.00000	99999.00	0.00	0.00	1.00000	0.000	1	0.00	0.00	-3604.99	-310.19	3605.00	375.00
2203	2503	0.003120	0.028860	0.15252	888.00	986.00	888.00	0.00000	0.000	1	0.00	0.00	418.92	-41.42	-413.46	76.42
2203	2503	0.003120	0.028860	0.15252	888.00	986.00	888.00	0.00000	0.000	1	0.00	0.00	418.92	-41.42	-413.46	76.42
2301	2302	0.000000	0.005000	0.00000	99999.00	0.00	0.00	1.00000	0.000	1	0.00	0.00	-351.46	30.71	351.46	-24.92
2301	2302	0.000000	0.005000	0.00000	99999.00	0.00	0.00	1.00000	0.000	1	0.00	0.00	-351.46	30.71	351.46	-24.92
2302	2332	0.000000	0.000500	0.00000	99999.00	0.00	0.00	1.00000	0.000	1	0.00	0.00	-611.26	-6.83	611.26	8.57
2400	2403	0.000420	0.009050	0.66794	3600.00	0.00	3600.00	0.00000	0.000	1	0.00	0.00	97.91	21.93	-97.85	-90.95
2401	2402	0.000280	0.007530	0.51736	2400.00	0.00	3600.00	0.00000	0.000	1	0.00	0.00	978.29	234.60	-975.68	-220.47
2401	2402	0.000350	0.007500	0.55360	2400.00	0.00	3600.00	0.00000	0.000	1	0.00	0.00	984.27	224.25	-980.99	-213.81
2401	2404	0.000440	0.011250	0.82920	3600.00	0.00	3600.00	0.00000	0.000	1	0.00	0.00	-808.44	138.44	811.18	-158.55
2401	2404	0.000440	0.011250	0.82920	3600.00	0.00	3600.00	0.00000	0.000	1	0.00	0.00	-808.44	138.44	811.18	-158.55
2401	2431	0.000000	0.000100	0.00000	99999.00	0.00	0.00	1.00000	0.000	1	0.00	0.00	-665.26	-201.87	665.27	202.31
2401	2501	0.000600	0.012800	0.94620	2400.00	0.00	3600.00	0.00000	0.000	1	0.00	0.00	852.67	166.24	-848.45	-177.96
2401	2603	0.000200	0.004100	0.29620	3001.00	0.00	0.00	0.00000	0.000	1	0.00	0.00	-1266.27	104.29	1269.20	-76.71
2401	2901	0.001930	0.027790	4.67120	3600.00	0.00	3600.00	0.00000	0.000	1	0.00	0.00	-146.37	-466.58	147.51	-61.34
2401	2902	0.001900	0.031000	4.14020	3600.00	0.00	3600.00	0.00000	0.000	1	0.00	0.00	-91.62	-453.56	92.64	-16.80
2402	2409	0.000000	0.005000	0.00000	99999.00	0.00	0.00	1.00000	0.000	1	0.00	0.00	-25.09	219.94	25.09	-217.63
2402	2501	0.000210	0.004570	0.32336	3600.00	0.00	3600.00	0.00000	0.000	1	0.00	0.00	769.76	122.35	-768.55	-130.13
2403	2501	0.000400	0.009300	0.68560	3600.00	0.00	3600.00	0.00000	0.000	1	0.00	0.00	-1089.41	47.37	1093.98	-12.78
2404	2411	0.000000	0.011490	0.00000	1120.00	0.00	1120.00	1.00000	0.000	1	0.00	0.00	230.77	156.80	-230.77	-148.48
2404	2411	0.000000	0.011490	0.00000	1120.00	0.00	1120.00	1.00000	0.000	1	0.00	0.00	230.77	156.80	-230.77	-148.48
2404	2411	0.000000	0.011490	0.00000	1120.00	0.00	1120.00	1.00000	0.000	1	0.00	0.00	230.77	156.80	-230.77	-148.48
2404	3893	0.000000	-0.009350	0.00000	2400.00	0.00	2134.00	0.00000	0.000	1	0.00	0.00	-753.07	-58.33	753.07	8.74
2404	3895	0.000000	-0.009350	0.00000	2400.00	0.00	2134.00	0.00000	0.000	1	0.00	0.00	-758.11	-56.12	758.11	5.89
2404	3897	0.000000	-0.008400	0.00000	2400.00	0.00	2100.00	0.00000	0.000	1	0.00	0.00	-803.49	-38.83	803.49	-11.70
2405	2406	0.001400	0.026400	0.10200	3070.00	0.00	3070.00	0.00000	0.000	1	0.00	0.00	-156.46	-22.33	156.82	19.02
2405	2410	0.000650	0.011870	0.04672	3070.00	0.00	3070.00	0.00000	0.000	1	0.00	0.00	479.10	-1.02	-477.57	24.44
2405	2410	0.000650	0.011870	0.04672	3070.00	0.00	3070.00	0.00000	0.000	1	0.00	0.00	479.10	-1.02	-477.57	24.44
2405	2619	0.000000	0.001150	0.00000	99999.00	0.00	0.00	1.00000	0.000	1	0.00	0.00	-1744.36	-1.80	1744.36	37.71
2406	2408	0.001900	0.025800	0.09840	2320.00	0.00	2320.00	0.00000	0.000	1	0.00	0.00	-1143.01	32.22	1168.12	298.40
2406	2410	0.008450	0.070340	0.15954	1160.00	0.00	1160.00	0.00000	0.000	1	0.00	0.00	139.99	-4.48	-138.32	2.77
2407	2408	0.001100	0.012700	0.04800	2320.00	0.00	2320.00	0.00000	0.000	1	0.00	0.00	-1267.21	43.59	1283.87	143.56
2408	2409	0.001380	0.053990	0.15252	2320.00	0.00	2320.00	0.00000	0.000	1	0.00	0.00	754.82	177.91	-747.25	101.76
2408	2409	0.001380	0.053990	0.15252	2320.00	0.00	2320.00	0.00000	0.000	1	0.00	0.00	754.82	177.91	-747.25	101.76
2408	2411	0.003200	0.039500	0.14400	2320.00	0.00	2320.00	0.00000	0.000	1	0.00	0.00	712.10	106.51	-697.01	64.43
2408	2438	0.000000	0.000500	0.00000	99999.00	0.00	0.00	1.00000	0.000	1	0.00	0.00	-9250.02	-1095.56	9250.10	1489.04
2408	2502	0.003120	0.028860	0.15252	1600.00	986.00	888.00	0.00000	0.000	1	0.00	0.00	1576.29	274.43	-1503.71	380.61
2409	2439	0.000000	0.000100	0.00000	99999.00	0.00	0.00	1.00000	0.000	1	0.00	0.00	-738.36	114.57	738.36	-114.03
2409	2502	0.003120	0.028860	0.15252	888.00	986.00	888.00	0.00000	0.000	1	0.00	0.00	152.62	-15.10	-151.92	5.73
2409	2503	0.003120	0.028860	0.15252	888.00	986.00	888.00	0.00000	0.000	1	0.00	0.00	240.94	12.89	-239.19	-12.37
2410	2411	0.002850	0.036490	0.12656	2320.00	0.00	2320.00	0.00000	0.000	1	0.00	0.00	-347.04	-50.94	350.63	84.21
2410	2411	0.001380	0.033990	0.11252	2320.00	0.00	2320.00	0.00000	0.000	1	0.00	0.00	-371.33	-67.57	373.34	105.86
2411	2434	0.000000	0.000100	0.00000	99999.00	0.00	0.00	1.00000	0.000	1	0.00	0.00	-566.28	104.93	566.28	-104.62
2501	2502	0.000000	0.005000	0.00000	99999.00	0.00	0.00	1.00000	0.000	1	0.00	0.00	174.34	106.96	-174.34	-104.96
2501	2502	0.000000	0.005000	0.00000	99999.00	0.00	0.00	1.00000	0.000	1	0.00	0.00	174.34	106.96	-174.34	-104.96
2501	2502	0.000000	0.005000	0.00000	99999.00	0.00	0.00	1.00000	0.000	1	0.00	0.00	174.34	106.96	-174.34	-104.96
2502	2503	0.003120	0.028860	0.15252	888.00	986.00	888.00	0.00000	0.000	1	0.00	0.00	89.29	16.25	-89.03	-29.54
2502	2503	0.003120	0.028860	0.15252	888.00	986.00	888.00	0.00000	0.000	1	0.00	0.00	89.29	16.25	-89.03	-29.54
2503	2533	0.000000	0.000500	0.00000	99999.00	0.00	0.00	1.00000	0.000	1	0.00	0.00	-907.89	-386.62	907.89	391.40
2600	2601	0.000740	0.018610	1.40264	2001.00	0.00	0.00	0.00000	0.000	1	0.00	0.00	154.78	5.04	-154.57	-151.22
2600	2602	0.000820	0.016680	1.18802	2001.00	0.00	0.00	0.00000	0.000	1	0.00	0.00	172.38	286.94	-171.23	-386.74
2600	2603	0.000000	0.001590	0.12002	2001.00	0.00	0.00	0.00000	0.000	1	0.00	0.00	794.08	-145.99	-794.08	142.26
2600	2603	0.000000	0.001590	0.12002	2001.00	0.00	0.00	0.00000	0.000	1	0.00	0.00	794.08	-145.99	-794.08	142.26
2601	2603	0.000830	0.018840	1.66668	2001.00	0.00	0.00	0.00000	0.000	1	0.00	0.00	-87.98	-179.83	88.11	2.41
2601	2612	0.000260	0.013860	0.00000	99999.00	0.00	0.00	1.00000	0.000	1	0.00	0.00	242.56	331.04	-242.15	-309.09
2602	2615	0.000130	0.013860	0.00000	99999.00	0.00	0.00	1.00000	0.000	1	0.00	0.00	8.03	183.25	-7.99	-178.48
2602	2615	0.000130	0.013860	0.00000	99999.00	0.00	0.00	1.00000	0.000	1	0.00	0.00	8.03	183.25	-7.99	-178.48
2603	2607	0.000200	0.023380	0.00000	99999.00	0.00	0.00	1.00000	0.000	1	0.00	0.00	-82.31	95.52	82.34	-92.14
2603	2901	0.001790	0.025240	0.53546	2001.00	0.00	0.00	0.00000	0.000	1	0.00	0.00	55.40	-280.97	-54.32	233.86
2604	2634	0.000000	0.000500	0.00000	99999.00	0.00	0.00	1.00000	0.000	1	0.00	0.00	-1618.00	58.31	1618.00	-45.96
2604	6404	0.010800	0.096500	0.32960	2001.00	0.00	0.00	0.00000	0.000	1	0.00	0.00	-13.49	-59.94	13.70	25.35
2604	6504	0.001800	0.024500	0.43920	2001.00	0.00	0.00	0.00000	0.000	1	0.00	0.00	-172.00	0.81	172.51	-40.36
2604	6504	0.001800	0.024500	0.43920	2001.00	0.00	0.00	0.00000	0.000	1	0.00	0.00	-172.00	0.81	172.51	-40.36
2605	2607	0.010700	0.079050	0.36670	2001.00	0.00	0.00	0.00000	0.000	1	0.00	0.00	41.77	-78.66	-41.17	46.07
2605	2621	0.000590	0.014910	0.00000	99999.00	0.00	0.00	1.00000	0.000	1	0.00	0.00	-41.77	78.66	41.82	-77.43
2606	2607	0.010700	0.079050	0.36670	2001.00	0.00	0.00	0.00000	0.000	1	0.00	0.00	41.77	-78.66	-41.17	46.07
2606	2621	0.000590	0.014910	0.00000	99999.00	0.00	0.00	1.00000	0.000	1	0.00	0.00	-41.77	78.66	41.82	-77.43
2608	2611	0.002210	0.033460	0.07338	2001.00	0.00	0.00	0.00000	0.000	1	0.00	0.00	18.33	2.84	-18.32	-9.99
2608	2612	0.002900	0.038000	0.08240	2001.00	0.00	0.00	0.00000	0.000	1	0.00	0.00	10.05	24.10	-10.03	-31.87
2608	2618	0.003090	0.046770	0.10080	2001.00	0.00	0.00	0.00000	0.000	1	0.00	0.00	77.50	24.33	-77.29	-30.98
2608	2619	0.002260	0.034220	0.07506	2001.00	0.00	0.00	0.00000	0.000	1	0.00	0.00	-25.95	28.04	25.98	-34.85
2608	2638	0.000000	0.000500	0.00000	99999.00	0.00	0.00	1.00000	0.000	1	0.00	0.00	-235.99	-99.68	235.99	100.01
2609	2615	0.000470	0.007230	0.01624	2001.00	0.00	0.00	0.00000	0.000	1	0.00	0.00	571.60	-176.61	-569.75	203.64
2609	2617	0.000350	0.005360	0.01204	2001.00	0.00	0.00	0.00000	0.000	1	0.00	0.00	-785.72	133.79	788.18	-97.30
2610	2613	0.002200	0.034220	0.07716	2001.00	0.00	0.00	0.00000	0.000	1	0.00	0.00	939.84	266.46	-918.97	50.88
2610	2613	0.002380	0.036690	0.08284	2001.00	0.00	0.00	0.00000	0.000	1	0.00	0.00	876.68	247.46	-857.04	47.46
2610	2616	0.002010	0.030740	0.06886	2001.00	0.00	0.00	0.00000	0.000	1	0.00	0.00	1078.80	297.44	-1053.79	78.52
2610	2617	0.002810	0.042960	0.09648	2001.00	0.00	0.00	0.00000	0.000	1	0.00	0.00	893.90	247.40	-869.85	111.06
2610	2630	0.000000	0.000500	0.00000	99999.00	0.00	0.00	1.00000	0.000	1	0.00	0.00	-3946.98	-1079.35	3947.00	1162.40
2611	2612	0.000290	0.004340	0.00950	2001.00	0.00	0.00	0.00000	0.000	1	0.00	0.00	-54.25	197.38	54.37	-196.46
2611	2631	0.000000	0.000500	0.00000	99999.00	0.00	0.00	1.00000	0.000	1	0.00	0.00	-83.48	-207.75	83.48	208.00
2612	2615	0.002290	0.015830	0.03060	2001.00	0.00	0.00	0.00000	0.000	1	0.00	0.00	-170.07	169.22	171.44	-162.68
2612	2615	0.002290	0.015830	0.03060	2001.00	0.00	0.00	0.00000	0.000	1	0.00	0.00	-170.07	169.22	171.44	-162.68
2612	2618	0.001410	0.009670	0.01940	2001.00	0.00	0.00	0.00000	0.000	1	0.00	0.00	331.31	2.02	-329.72	7.01
2612	2618	0.001410	0.009670	0.01940	2001.00	0.00	0.00	0.00000	0.000	1	0.00	0.00	331.31	2.02	-329.72	7.01
2612	2618	0.001610	0.009710	0.01928	2001.00	0.00	0.00	0.00000	0.000	1	0.00	0.00	328.94	-4.42	-327.15	13.34
2612	2618	0.001610	0.009710	0.01928	2001.00	0.00	0.00	0.00000	0.000	1	0.00	0.00	328.94	-4.42	-327.15	13.34
2612	2619	0.000270	0.003930	0.00918	2001.00	0.00	0.00	0.00000	0.000	1	0.00	0.00	-316.79	4.11	317.07	-0.95
2612	2619	0.000270	0.003930	0.00918	2001.00	0.00	0.00	0.00000	0.000	1	0.00	0.00	-316.79	4.11	317.07	-0.95
2612	2619	0.000270	0.003930	0.00918	2001.00	0.00	0.00	0.00000	0.000	1	0.00	0.00	-316.79	4.11	317.07	-0.95
2612	2620	0.001380	0.011160	0.02470	2001.00	0.00	0.00	0.00000	0.000	1	0.00	0.00	14.58	93.58	-14.45	-94.91
2612	2620	0.001380	0.011160	0.02470	2001.00	0.00	0.00	0.00000	0.000	1	0.00	0.00	14.58	93.58	-14.45	-94.91
2612	2637	0.000000	0.000500	0.00000	99999.00	0.00	0.00	1.00000	0.000	1	0.00	0.00	-50.45	-34.77	50.45	34.79
2613	2616	0.000370	0.003660	0.00830	2001.00	0.00	0.00	0.00000	0.000	1	0.00	0.00	240.31	-85.30	-240.04	87.21
2613	2617	0.000550	0.005860	0.01246	2001.00	0.00	0.00	0.00000	0.000	1	0.00	0.00	1025.66	-116.65	-1019.10	185.44
2614	2616	0.000730	0.010250	0.02558	2001.00	0.00	0.00	0.00000	0.000	1	0.00	0.00	-336.81	95.13	337.79	-83.64
2614	2616	0.000730	0.010250	0.02558	2001.00	0.00	0.00	0.00000	0.000	1	0.00	0.00	-336.81	95.13	337.79	-83.64
2614	2621	0.000300	0.013300	0.00000	99999.00	0.00	0.00	1.00000	0.000	1	0.00	0.00	228.49	-117.74	-228.28	127.38
2614	2621	0.000300	0.013400	0.00000	99999.00	0.00	0.00	1.00000	0.000	1	0.00	0.00	226.81	-116.82	-226.59	126.40
2615	2617	0.001190	0.012440	0.02798	2001.00	0.00	0.00	0.00000	0.000	1	0.00	0.00	-662.95	211.47	669.16	-149.09
2615	2617	0.001190	0.012440	0.02798	2001.00	0.00	0.00	0.00000	0.000	1	0.00	0.00	-662.95	211.47	669.16	-149.09
2615	2620	0.001280	0.009790	0.02120	2001.00	0.00	0.00	0.00000	0.000	1	0.00	0.00	294.80	-152.59	-293.29	162.18
2616	2617	0.001100	0.011890	0.02514	2001.00	0.00	0.00	0.00000	0.000	1	0.00	0.00	432.14	-36.62	-429.84	59.27
2901	2902	0.000560	0.014150	1.04290	3600.00	0.00	3600.00	0.00000	0.000	1	0.00	0.00	92.70	-144.34	-92.64	16.80
3101	3102	0.001100	0.012700	0.04800	1120.00	1120.00	1120.00	0.00000	0.000	1	0.00	0.00	-194.27	-30.07	194.72	30.65
3101	3102	0.001100	0.012700	0.04800	1120.00	1120.00	1120.00	0.00000	0.000	1	0.00	0.00	-194.27	-30.07	194.72	30.65
3102	3103	0.001100	0.012700	0.04800	1120.00	1120.00	1120.00	0.00000	0.000	1	0.00	0.00	-354.69	-25.18	356.14	37.25
3102	3103	0.001100	0.012700	0.04800	1120.00	1120.00	1120.00	0.00000	0.000	1	0.00	0.00	-354.69	-25.18	356.14	37.25
3102	3103	0.001100	0.012700	0.04800	1120.00	1120.00	1120.00	0.00000	0.000	1	0.00	0.00	-354.69	-25.18	356.14	37.25
3102	3104	0.000890	0.029900	0.00000	250.00	0.00	250.00	1.00000	0.000	1	0.00	0.00	116.34	2.56	-116.21	1.66
3102	3302	0.001100	0.012700	0.04800	1120.00	1120.00	1120.00	0.00000	0.000	1	0.00	0.00	377.74	-16.55	-376.10	30.86
3103	3133	0.000000	0.000500	0.00000	99999.00	0.00	0.00	1.00000	0.000	1	0.00	0.00	-62.00	-24.77	62.00	24.80
3103	3204	0.001100	0.012700	0.04800	1120.00	1120.00	1120.00	0.00000	0.000	1	0.00	0.00	-906.14	-45.70	915.42	148.06
3103	3204	0.001100	0.012700	0.04800	1120.00	1120.00	1120.00	0.00000	0.000	1	0.00	0.00	-906.14	-45.70	915.42	148.06
3103	3305	0.001100	0.012700	0.04800	1120.00	1120.00	1120.00	0.00000	0.000	1	0.00	0.00	167.26	-31.36	-166.93	30.42
3103	3305	0.001100	0.012700	0.04800	1120.00	1120.00	1120.00	0.00000	0.000	1	0.00	0.00	167.26	-31.36	-166.93	30.42
3104	3105	0.003120	0.028860	0.15252	888.00	986.00	888.00	0.00000	0.000	1	0.00	0.00	-235.07	-47.11	236.92	49.32
3105	3135	0.000000	0.000500	0.00000	99999.00	0.00	0.00	1.00000	0.000	1	0.00	0.00	-503.78	-104.05	503.78	105.37
3201	3202	0.001100	0.012700	0.04800	1120.00	1120.00	1120.00	0.00000	0.000	1	0.00	0.00	-194.56	33.94	195.00	-33.69
3201	3202	0.001100	0.012700	0.04800	1120.00	1120.00	1120.00	0.00000	0.000	1	0.00	0.00	-194.56	33.94	195.00	-33.69
3201	3203	0.001100	0.012700	0.04800	1120.00	1120.00	1120.00	0.00000	0.000	1	0.00	0.00	-125.09	17.11	125.27	-19.83
3201	3203	0.001100	0.012700	0.04800	1120.00	1120.00	1120.00	0.00000	0.000	1	0.00	0.00	-125.09	17.11	125.27	-19.83
3201	3923	0.003120	0.028860	0.15252	888.00	986.00	888.00	0.00000	0.000	1	0.00	0.00	-183.58	-49.14	184.69	43.98
3201	3923	0.003120	0.028860	0.15252	888.00	986.00	888.00	0.00000	0.000	1	0.00	0.00	-183.58	-49.14	184.69	43.98
3201	3924	0.001100	0.012700	0.04800	1120.00	1120.00	1120.00	0.00000	0.000	1	0.00	0.00	244.78	-56.59	-244.09	59.83
3201	3924	0.001100	0.012700	0.04800	1120.00	1120.00	1120.00	0.00000	0.000	1	0.00	0.00	244.78	-56.59	-244.09	59.83
3202	3203	0.001100	0.012700	0.04800	1120.00	1120.00	1120.00	0.00000	0.000	1	0.00	0.00	69.73	-17.41	-69.67	13.31
3202	3203	0.003120	0.028860	0.15252	1120.00	986.00	888.00	0.00000	0.000	1	0.00	0.00	30.47	-14.80	-30.44	-0.02
3202	3204	0.001100	0.012700	0.04800	1120.00	1120.00	1120.00	0.00000	0.000	1	0.00	0.00	-996.99	27.62	1008.05	95.26
3202	3205	0.001100	0.012700	0.04800	2001.00	1120.00	1120.00	0.00000	0.000	1	0.00	0.00	-533.94	71.53	537.17	-38.98
3202	3924	0.003120	0.028860	0.15252	888.00	986.00	888.00	0.00000	0.000	1	0.00	0.00	192.68	-46.44	-191.46	42.51
3202	3924	0.003120	0.028860	0.15252	888.00	986.00	888.00	0.00000	0.000	1	0.00	0.00	192.68	-46.44	-191.46	42.51
3203	3204	0.001100	0.012700	0.04800	1120.00	1120.00	1120.00	0.00000	0.000	1	0.00	0.00	-1067.54	52.43	1080.21	89.06
3203	3303	0.001100	0.012700	0.04800	1120.00	1120.00	1120.00	0.00000	0.000	1	0.00	0.00	386.76	-58.26	-385.07	73.03
3203	3303	0.003120	0.028860	0.15252	1120.00	986.00	888.00	0.00000	0.000	1	0.00	0.00	169.28	-35.71	-168.36	29.09
3203	3305	0.001100	0.012700	0.04800	1120.00	1120.00	1120.00	0.00000	0.000	1	0.00	0.00	14.90	44.52	-14.87	-48.94
3203	3923	0.003120	0.028860	0.15252	888.00	986.00	888.00	0.00000	0.000	1	0.00	0.00	-127.86	-60.88	128.47	51.03
3203	3923	0.003120	0.028860	0.15252	888.00	986.00	888.00	0.00000	0.000	1	0.00	0.00	-127.86	-60.88	128.47	51.03
3204	3205	0.001100	0.012700	0.04800	1120.00	1120.00	1120.00	0.00000	0.000	1	0.00	0.00	460.77	101.19	-458.36	-78.24
3204	3205	0.001100	0.012700	0.04800	1120.00	1120.00	1120.00	0.00000	0.000	1	0.00	0.00	460.77	101.19	-458.36	-78.24
3204	3234	0.000000	0.000500	0.00000	99999.00	0.00	0.00	1.00000	0.000	1	0.00	0.00	-6286.97	-690.35	6287.00	886.42
3204	3923	0.003120	0.028860	0.15252	888.00	986.00	888.00	0.00000	0.000	1	0.00	0.00	353.96	-48.84	-350.07	69.11
3204	3923	0.003120	0.028860	0.15252	888.00	986.00	888.00	0.00000	0.000	1	0.00	0.00	353.96	-48.84	-350.07	69.11
3205	3914	0.003120	0.028860	0.15252	888.00	986.00	888.00	0.00000	0.000	1	0.00	0.00	-229.56	73.69	231.44	-71.20
3205	3915	0.003120	0.028860	0.15252	888.00	986.00	888.00	0.00000	0.000	1	0.00	0.00	-0.75	34.89	0.81	-49.23
3301	3303	0.000300	0.017400	0.00000	840.00	0.00	840.00	1.00000	0.000	1	0.00	0.00	-100.64	91.02	100.69	-87.91
3301	3303	0.000300	0.017400	0.00000	840.00	0.00	840.00	1.00000	0.000	1	0.00	0.00	-100.64	91.02	100.69	-87.91
...
];

%% bus names
mpc.bus_name = {
'FOURCORN    ';
'FOURCORN    ';
'FOURCORN    ';
'SAN JUAN    ';
'FCNGN4CC    ';
'SJUAN G4    ';
'CORONADO    ';
'CHOLLA      ';
'CORONADO    ';
'MOENKOPI    ';
'NAVAJO      ';
'NAVAJO 2    ';
'MEAD        ';
'H ALLEN     ';
'H ALLEN     ';
'HOOVER      ';
'H ALLEN     ';
'PALOVRDE    ';
'WESTWING    ';
'PARKER      ';
'PALOVRD2    ';
'MEXICO      ';
'MEXICO      ';
'IMPERIAL    ';
'IMPERIAL    ';
'MIGUEL      ';
'MIGUEL      ';
'MISSION     ';
'MISSION     ';
'IMPRLVLY    ';
'IMPRLVLY    ';
'IMPRLVLY    ';
'DEVERS      ';
'LUGO        ';
'MIRALOMA    ';
'VALLEY      ';
'VINCENT     ';
'SYLMAR S    ';
'EAGLROCK    ';
'LITEHIPE    ';
'MESA CAL    ';
'MIRALOMA    ';
'PARDEE      ';
'VINCENT     ';
'LUGO        ';
'VINCENT     ';
'MESA CAL    ';
'MIRALOMA    ';
'SERRANO     ';
'SERRANO     ';
'S.ONOFRE    ';
'S.ONOFRE    ';
'ADELANTO    ';
'RINALDI     ';
'STA E       ';
'VICTORVL    ';
'INTERMT     ';
'STA B1      ';
'STA B2      ';
'VICTORVL    ';
'CASTAIC     ';
'GLENDAL     ';
'HAYNES      ';
'OLIVE       ';
'RINALDI     ';
'RIVER       ';
'STA BLD     ';
'STA E       ';
'STA F       ';
'STA G       ';
'STA J       ';
'SYLMARLA    ';
'VALLEY      ';
'STA B       ';
'HAYNES3G    ';
'OLIVE       ';
'INTERM1G    ';
'OWENS G     ';
'CASTAI4G    ';
'ELDORADO    ';
'MOHAVE      ';
'EMBRCDRD    ';
'MARTIN      ';
'SANMATEO    ';
'MARTIN      ';
'POTRERO     ';
'SANMATEO    ';
'POTRERO     ';
'C.COSTA     ';
'MORAGA      ';
'NEWARK      ';
'PITSBURG    ';
'SOBRANTE    ';
'PITSBURG    ';
'METCALF     ';
'JEFFERSN    ';
'METCALF     ';
'MONTAVIS    ';
'RAVENSWD    ';
'METCALF     ';
'GREGG       ';
'HELMS PP    ';
'MC CALL     ';
'PANOCHE     ';
'WILSON      ';
'HELMS PP    ';
'MC CALL     ';
'FULTON      ';
'FULTON      ';
'HUMBOLDT    ';
'HUMBOLDT    ';
'SUMMIT      ';
'SUMMIT      ';
'DIABLO      ';
'GATES       ';
'MIDWAY      ';
'GATES       ';
'MIDWAY      ';
'MORROBAY    ';
'DIABLO1     ';
'MIDWAY      ';
'MORROBAY    ';
'GATES1      ';
'MIDWAY1     ';
'MIDWAY2     ';
'MIDWAY3     ';
'MIDWAY4     ';
'MIDWAY5     ';
'MIDWAY6     ';
'LOSBANOS    ';
'MOSSLAND    ';
'TESLA       ';
'VACA-DIX    ';
'TABLE MT    ';
'ROUND MT    ';
'BELLOTA     ';
'BRIGHTON    ';
'COLGATE     ';
'CORTINA     ';
'COTWDPGE    ';
'GLENN       ';
'GOLDHILL    ';
'IGNACIO     ';
'LAKEVILE    ';
'LOGAN CR    ';
'LOSBANOS    ';
'MOSSLAND    ';
'PALERMO     ';
'RIO OSO     ';
'ROUND MT    ';
'TABLE MT    ';
'TESLA       ';
'VACA-DIX    ';
'COTWDPGE    ';
'RIO OSO     ';
'ROUND MT    ';
'MOSSLAND    ';
'TESLA       ';
'MALIN       ';
'SUMMER L    ';
'BURNS       ';
'GRIZZLY     ';
'JOHN DAY    ';
'BIG EDDY    ';
'CELILOCA    ';
'MALIN       ';
'BIG EDDY    ';
'CELILO      ';
'MALIN       ';
'JOHN DAY    ';
'DALLES21    ';
'MALIN1      ';
'GRIZZLY1    ';
'GRIZZLY2    ';
'GRIZZLY3    ';
'GRIZZLY4    ';
'GRIZZLY5    ';
'GRIZZLY6    ';
'GRIZZLY7    ';
'COULEE      ';
'HANFORD     ';
'BELL        ';
'BELL        ';
'COULEE      ';
'HANFORD     ';
'NORTH       ';
'WCASCADE    ';
'WILLAMET    ';
'MERIDIAN    ';
'NORTH G3    ';
'WCASCADE    ';
'CANADA      ';
'CANALB      ';
'CA230TO     ';
'CA230       ';
'CANAD G1    ';
'CMAIN GM    ';
'MIDPOINT    ';
'MIDPOINT    ';
'BORAH       ';
'BORAH       ';
'MIDPOINT    ';
'COLSTRP     ';
'GARRISON    ';
'COLSTRP     ';
'GARRISON    ';
'MONTANA     ';
'COLSTRP     ';
'MONTA G1    ';
'BRIDGER     ';
'LARAMIE     ';
'BRIDGER2    ';
'LARAMIE     ';
'NAUGHTON    ';
'BRIDGER     ';
'NAUGHT      ';
'TRACYSPP    ';
'SUMITSPP    ';
'VALMY       ';
'GONDER      ';
'VALMY       ';
'BENLOMND    ';
'CAMP WIL    ';
'EMERY       ';
'MONA        ';
'PINTO       ';
'PINTO PS    ';
'SIGURD      ';
'SPAN FRK    ';
'TERMINAL    ';
'BENLOMND    ';
'EMERY       ';
'COLOEAST    ';
'CRAIG       ';
'COLOEAST    ';
'CRAIG       ';
'OLINDA      ';
'TRACY       ';
'COTWDWAP    ';
'RNCHSECO    ';
'TRACYPMP    ';
...